OPT_V10/Two_days_first_run/powerflow_results_t46.txt
Pandapower Network Debug Info
==================================================

BUS:
       vm_pu  va_degree      p_mw    q_mvar
0   0.992643   0.113983  0.000869  0.000912
1   0.987937   0.193373  0.001543  0.002134
2   0.983680   0.266193  0.002216  0.003093
3   0.988622   0.179357  0.002889  0.003929
4   0.988746   0.213400  0.003340  0.005097
5   0.992422   0.134558  0.003215  0.005234
6   0.990582   0.146181  0.001191  0.001158
7   0.997349   0.030270  0.001869  0.002183
8   0.997751   0.037218  0.002170  0.002753
9   0.999822   0.000400  0.011883  0.008277
10  0.999829   0.000420  0.013077  0.009907
11  0.999848   0.000456  0.010273  0.010458
12  0.999763   0.002084  0.010066  0.006739
13  0.999734   0.002417  0.010106  0.011716
14  0.999743   0.002309  0.014902  0.014277
15  0.999928   0.000363  0.000000  0.000000
16  0.999927   0.000369  0.000000  0.000000
17  0.999768   0.002106  0.000000  0.000000
18  0.999768   0.002116  0.000000  0.000000
19  1.000000   0.000000 -0.042907 -0.043818
20  1.000000   0.000006  0.000000  0.000000
21  1.000000   0.000000 -0.047010 -0.054259
22  1.000000   0.000007  0.000000  0.000000
--------------------------------------------------

LINE:
    p_from_mw  q_from_mvar   p_to_mw  q_to_mvar         pl_mw       ql_mvar  i_from_ka   i_to_ka      i_ka  vm_from_pu  va_from_degree  vm_to_pu  va_to_degree  loading_percent
0    0.042897     0.039818 -0.042894  -0.039815  3.350717e-06  2.612609e-06   0.002253  0.002253  0.002253    1.000000        0.000006  0.999928      0.000363         0.979468
1    0.047000     0.050259 -0.046987  -0.050249  1.273633e-05  9.930726e-06   0.002649  0.002649  0.002649    1.000000        0.000007  0.999768      0.002106         1.151535
2    0.035236     0.028645 -0.035234  -0.028643  2.852946e-06  2.224489e-06   0.001748  0.001748  0.001748    0.999928        0.000363  0.999848      0.000456         0.759995
3    0.010067     0.006739 -0.010066  -0.006739  5.077274e-08  3.958834e-08   0.000466  0.000466  0.000466    0.999768        0.002106  0.999763      0.002084         0.202772
4    0.025008     0.025994 -0.025008  -0.025993  7.117606e-07  5.549715e-07   0.001389  0.001389  0.001389    0.999768        0.002106  0.999743      0.002309         0.603776
5    0.007647     0.010171 -0.007571  -0.010112  7.574535e-05  5.905990e-05   0.018368  0.018368  0.018368    0.999927        0.000369  0.992643      0.113983         7.986129
6    0.004456     0.006431 -0.004408  -0.006394  4.750862e-05  3.704325e-05   0.011295  0.011295  0.011295    0.999768        0.002116  0.992422      0.134558         4.910865
7    0.001875     0.002187 -0.001869  -0.002183  5.608975e-06  4.373410e-06   0.004159  0.004159  0.004159    0.999768        0.002116  0.997349      0.030270         1.808199
8    0.005572     0.007899 -0.005556  -0.007886  1.607184e-05  1.253148e-05   0.013955  0.013955  0.013955    0.999768        0.002116  0.997751      0.037218         6.067350
9    0.011883     0.008277 -0.011883  -0.008277  7.255104e-08  5.656924e-08   0.000557  0.000557  0.000557    0.999829        0.000420  0.999822      0.000400         0.242390
10   0.024960     0.018185 -0.024960  -0.018184  4.665667e-07  3.637898e-07   0.001189  0.001189  0.001189    0.999848        0.000456  0.999829      0.000420         0.516884
11   0.010106     0.011716 -0.010106  -0.011716  1.171423e-07  9.133781e-08   0.000596  0.000596  0.000596    0.999743        0.002309  0.999734      0.002417         0.258996
12  -0.003772    -0.005238  0.003798   0.005258  2.525913e-05  1.969496e-05   0.009431  0.009431  0.009431    0.987937        0.193373  0.992643      0.113983         4.100506
13  -0.002889    -0.003929  0.002905   0.003942  1.624916e-05  1.266974e-05   0.007120  0.007120  0.007120    0.988622        0.179357  0.992643      0.113983         3.095861
14  -0.002216    -0.003093  0.002230   0.003104  1.353549e-05  1.055384e-05   0.005583  0.005583  0.005583    0.983680        0.266193  0.987937      0.193373         2.427514
15   0.003386     0.005133 -0.003340  -0.005097  4.621626e-05  3.603558e-05   0.008896  0.008896  0.008896    0.997751        0.037218  0.988746      0.213400         3.867654
16  -0.001191    -0.001158  0.001193   0.001160  2.447445e-06  1.908313e-06   0.002420  0.002420  0.002420    0.990582        0.146181  0.992422      0.134558         1.052188
--------------------------------------------------

TRAFO:
    p_hv_mw  q_hv_mvar   p_lv_mw  q_lv_mvar    pl_mw   ql_mvar   i_hv_ka   i_lv_ka  vm_hv_pu  va_hv_degree  vm_lv_pu  va_lv_degree  loading_percent
0  0.007657   0.011171 -0.007647  -0.010171  0.00001  0.001000  0.000521  0.018368  0.999928      0.000363  0.999927      0.000369         0.135440
1  0.011912   0.017516 -0.011902  -0.016516  0.00001  0.000999  0.000816  0.029391  0.999768      0.002106  0.999768      0.002116         0.211877
2  0.042907   0.043818 -0.042897  -0.039818  0.00001  0.004000  0.000506  0.002253  1.000000      0.000000  1.000000      0.000006         0.153318
3  0.047010   0.054259 -0.047000  -0.050259  0.00001  0.004000  0.000592  0.002649  1.000000      0.000000  1.000000      0.000007         0.179477
--------------------------------------------------
